16
Lattice="5.1305 0.0 0.0 0.0 5.1305 0.0 0.0 0.0 5.1305"
N 1.04470891 1.04467975 1.04472578
N 3.60995847 1.52057361 4.08577516
N 4.08580811 3.60992798 1.52051951
N 1.52055891 4.08582692 3.60997900
H 1.86198440 1.39631721 0.53263233
H 1.39638414 0.53260446 1.86208330
H 0.53256637 1.86191453 1.39633557
H 4.42723342 1.16893701 4.59786767
H 3.96163521 2.03264968 3.26841562
H 3.09781668 0.70333959 3.73416376
H 3.73412397 3.09785652 0.70317001
H 4.59793363 4.42716029 1.16892118
H 2.03268616 3.26859071 3.96157834
H 0.70326905 3.73418703 3.09787790
H 1.16887653 4.59789554 4.42732765
H 3.26851588 3.96156632 2.03262046